*INCLUDE, INPUT=Tube_Mesh_OUT.inp

*MATERIAL,NAME=Metal
*CONDUCTIVITY 
16.6
*ELASTIC
152.18E9
*EXPANSION
1.6900E-5
*SPECIFIC HEAT
5.0200E+02
*DENSITY
8.026E+03

*BOUNDARY
BOTTOM,11,11,3.0000E+02
*BOUNDARY
FIX,1
*BOUNDARY
FIX,2
*BOUNDARY
FIX,3
*BOUNDARY
FIX,4
*BOUNDARY
FIX,5
*BOUNDARY
FIX,6
*SOLID SECTION,MATERIAL=Metal,ELSET=Eall

*STEP 
*HEAT TRANSFER,STEADY STATE  
*DFLUX

*NODE FILE 
NT  
*EL FILE 
HFL
*NODE PRINT,NSET=TOPLQ
RFL
*NODE PRINT,NSET=BOTTOM
RFL
*END STEP

*STEP
*COUPLED TEMPERATURE-DISPLACEMENT, STEADY STATE
1,1
*DFLUX
*INCLUDE, INPUT=TOPLQ.dfl

*NODE FILE 
NT, U  
*EL FILE 
S, E
*NODE PRINT,NSET=Nall
U
*END STEP


